
Circuit: ***** spice netlist for cell 'spice_example1' *****

binary raw file "simrun.raw"
Doing analysis at TEMP = 25.000000 and TNOM = 27.000000

Warning: This model is BSIM4.5.0; you specified a wrong version number '4.0'.
Warning: This model is BSIM4.5.0; you specified a wrong version number '4.0'.
Warning: This model is BSIM4.5.0; you specified a wrong version number '4.0'.
Warning: This model is BSIM4.5.0; you specified a wrong version number '4.0'.
Warning: v_in: no DC value, transient time 0 value used
No. of Data Columns : 7  

Initial Transient Solution
--------------------------

Node                                   Voltage
----                                   -------
n1                                     1.17155
n0                                     0.39052
vdd                                        1.3
n2                                     1.17152
in                                           0
out                                0.000335093
v_in#branch                        7.81039e-06
vsup#branch                       -7.98612e-05


No. of Data Rows : 100065

Total analysis time (seconds) = 4.29047

Total CPU time (seconds) = 5.250 

Total DRAM available = 1993.141 MB.
DRAM currently available =  583.398 MB.
Maximum ngspice program size =   54.719 MB.
Current ngspice program size =    8.258 MB.

Shared ngspice pages =    7.012 MB.
Text (code) pages =    6.004 MB.
Stack = 0 bytes.
Library pages =    1.812 MB.

